<?xml version="1.0" encoding="UTF-8"?>

<!-- generated on Sat Aug 11 09:48:21 2018 by SUMO netconvert Version 0.32.0
<?xml version="1.0" encoding="UTF-8"?>

<configuration xmlns:xsi="http://www.w3.org/2001/XMLSchema-instance" xsi:noNamespaceSchemaLocation="http://sumo.dlr.de/xsd/netconvertConfiguration.xsd">

    <input>
        <osm-files value="uttara.osm"/>
    </input>

    <output>
        <output-file value="uttara.net.xml"/>
    </output>

    <projection>
        <proj.utm value="true"/>
    </projection>

</configuration>
-->

<net version="0.27" xmlns:xsi="http://www.w3.org/2001/XMLSchema-instance" xsi:noNamespaceSchemaLocation="http://sumo.dlr.de/xsd/net_file.xsd">

    <location netOffset="-233594.63,-2641246.97" convBoundary="0.00,0.00,2219.78,2175.51" origBoundary="90.383916,23.860808,90.405694,23.880459" projParameter="+proj=utm +zone=46 +ellps=WGS84 +datum=WGS84 +units=m +no_defs"/>

    <type id="highway.bridleway" priority="1" numLanes="1" speed="2.78" allow="pedestrian" oneway="1" width="2.00"/>
    <type id="highway.bus_guideway" priority="1" numLanes="1" speed="8.33" allow="bus" oneway="1"/>
    <type id="highway.cycleway" priority="1" numLanes="1" speed="5.56" allow="bicycle" oneway="0" width="1.00"/>
    <type id="highway.footway" priority="1" numLanes="1" speed="2.78" allow="pedestrian" oneway="1" width="2.00"/>
    <type id="highway.ford" priority="1" numLanes="1" speed="2.78" allow="army" oneway="0"/>
    <type id="highway.living_street" priority="3" numLanes="1" speed="2.78" disallow="tram rail_urban rail rail_electric ship" oneway="0"/>
    <type id="highway.motorway" priority="13" numLanes="2" speed="44.44" allow="private emergency authority army vip passenger hov taxi bus coach delivery truck trailer motorcycle evehicle custom1 custom2" oneway="1"/>
    <type id="highway.motorway_link" priority="12" numLanes="1" speed="22.22" allow="private emergency authority army vip passenger hov taxi bus coach delivery truck trailer motorcycle evehicle custom1 custom2" oneway="1"/>
    <type id="highway.path" priority="1" numLanes="1" speed="2.78" allow="bicycle pedestrian" oneway="1" width="2.00"/>
    <type id="highway.pedestrian" priority="1" numLanes="1" speed="2.78" allow="pedestrian" oneway="1" width="2.00"/>
    <type id="highway.primary" priority="9" numLanes="2" speed="27.78" disallow="tram rail_urban rail rail_electric ship" oneway="0"/>
    <type id="highway.primary_link" priority="8" numLanes="1" speed="22.22" disallow="tram rail_urban rail rail_electric ship" oneway="0"/>
    <type id="highway.raceway" priority="14" numLanes="2" speed="83.33" allow="vip" oneway="0"/>
    <type id="highway.residential" priority="4" numLanes="1" speed="13.89" disallow="tram rail_urban rail rail_electric ship" oneway="0"/>
    <type id="highway.secondary" priority="7" numLanes="2" speed="27.78" disallow="tram rail_urban rail rail_electric ship" oneway="0"/>
    <type id="highway.secondary_link" priority="6" numLanes="1" speed="22.22" disallow="tram rail_urban rail rail_electric ship" oneway="0"/>
    <type id="highway.service" priority="2" numLanes="1" speed="5.56" allow="delivery bicycle pedestrian" oneway="0"/>
    <type id="highway.services" priority="1" numLanes="1" speed="8.33" disallow="tram rail_urban rail rail_electric ship" oneway="0"/>
    <type id="highway.stairs" priority="1" numLanes="1" speed="1.39" allow="pedestrian" oneway="1" width="2.00"/>
    <type id="highway.step" priority="1" numLanes="1" speed="1.39" allow="pedestrian" oneway="1" width="2.00"/>
    <type id="highway.steps" priority="1" numLanes="1" speed="1.39" allow="pedestrian" oneway="1" width="2.00"/>
    <type id="highway.tertiary" priority="6" numLanes="1" speed="22.22" disallow="tram rail_urban rail rail_electric ship" oneway="0"/>
    <type id="highway.tertiary_link" priority="5" numLanes="1" speed="22.22" disallow="tram rail_urban rail rail_electric ship" oneway="0"/>
    <type id="highway.track" priority="1" numLanes="1" speed="5.56" disallow="tram rail_urban rail rail_electric ship" oneway="0"/>
    <type id="highway.trunk" priority="11" numLanes="2" speed="27.78" disallow="tram rail_urban rail rail_electric bicycle pedestrian ship" oneway="0"/>
    <type id="highway.trunk_link" priority="10" numLanes="1" speed="22.22" disallow="tram rail_urban rail rail_electric bicycle pedestrian ship" oneway="0"/>
    <type id="highway.unclassified" priority="5" numLanes="1" speed="13.89" disallow="tram rail_urban rail rail_electric ship" oneway="0"/>
    <type id="highway.unsurfaced" priority="1" numLanes="1" speed="8.33" disallow="tram rail_urban rail rail_electric ship" oneway="0"/>
    <type id="railway.light_rail" priority="15" numLanes="1" speed="27.78" allow="rail_urban" oneway="1"/>
    <type id="railway.preserved" priority="15" numLanes="1" speed="27.78" allow="rail" oneway="1"/>
    <type id="railway.rail" priority="15" numLanes="1" speed="83.33" allow="rail rail_electric" oneway="1"/>
    <type id="railway.subway" priority="15" numLanes="1" speed="27.78" allow="rail_urban" oneway="1"/>
    <type id="railway.tram" priority="15" numLanes="1" speed="13.89" allow="tram" oneway="1"/>

    <edge id=":1551032720_0" function="internal">
        <lane id=":1551032720_0_0" index="0" disallow="tram rail_urban rail rail_electric ship" speed="13.89" length="4.82" shape="1642.44,783.87 1643.31,782.67 1644.15,782.29 1644.96,782.73 1645.74,784.00"/>
    </edge>
    <edge id=":1551032729_0" function="internal">
        <lane id=":1551032729_0_0" index="0" disallow="tram rail_urban rail rail_electric bicycle pedestrian ship" speed="20.83" length="5.43" shape="1697.36,1525.27 1695.99,1525.41 1694.98,1526.03 1694.34,1527.13 1694.06,1528.70"/>
    </edge>
    <edge id=":1551032729_1" function="internal">
        <lane id=":1551032729_1_0" index="0" disallow="tram rail_urban rail rail_electric ship" speed="22.22" length="12.99" shape="1697.36,1525.27 1693.92,1525.10 1690.87,1525.05 1687.81,1525.09 1684.37,1525.24"/>
    </edge>
    <edge id=":1551032729_2" function="internal">
        <lane id=":1551032729_2_0" index="0" disallow="tram rail_urban rail rail_electric ship" speed="22.22" length="4.82" shape="1697.36,1525.27 1696.17,1524.37 1695.81,1523.52 1696.27,1522.72 1697.55,1521.97"/>
    </edge>
    <edge id=":1551032729_3" function="internal">
        <lane id=":1551032729_3_0" index="0" disallow="tram rail_urban rail rail_electric ship" speed="20.83" length="5.02" shape="1694.58,1518.70 1694.71,1520.07 1695.25,1521.06 1696.19,1521.70 1697.55,1521.97"/>
    </edge>
    <edge id=":1551032729_4" function="internal">
        <lane id=":1551032729_4_0" index="0" disallow="tram rail_urban rail rail_electric bicycle pedestrian ship" speed="19.44" length="10.00" shape="1694.58,1518.70 1694.06,1528.70"/>
        <lane id=":1551032729_4_1" index="1" disallow="tram rail_urban rail rail_electric bicycle pedestrian ship" speed="19.44" length="10.00" shape="1691.29,1518.54 1690.76,1528.52"/>
        <lane id=":1551032729_4_2" index="2" disallow="tram rail_urban rail rail_electric bicycle pedestrian ship" speed="19.44" length="10.00" shape="1687.99,1518.37 1687.47,1528.34"/>
    </edge>
    <edge id=":1551032729_7" function="internal">
        <lane id=":1551032729_7_0" index="0" disallow="tram rail_urban rail rail_electric ship" speed="20.83" length="8.45" shape="1687.99,1518.37 1687.64,1521.31 1686.92,1523.44 1685.83,1524.75 1684.37,1525.24"/>
    </edge>
    <edge id=":1551032729_8" function="internal">
        <lane id=":1551032729_8_0" index="0" disallow="tram rail_urban rail rail_electric ship" speed="22.22" length="13.36" shape="1684.20,1521.94 1687.69,1521.80 1690.88,1521.75 1694.06,1521.81 1697.55,1521.97"/>
    </edge>
    <edge id=":1551032729_9" function="internal">
        <lane id=":1551032729_9_0" index="0" disallow="tram rail_urban rail rail_electric bicycle pedestrian ship" speed="20.83" length="8.16" shape="1684.20,1521.94 1685.77,1522.27 1686.83,1523.45 1687.40,1525.47 1687.47,1528.34"/>
    </edge>
    <edge id=":1551032729_10" function="internal">
        <lane id=":1551032729_10_0" index="0" disallow="tram rail_urban rail rail_electric ship" speed="22.22" length="4.82" shape="1684.20,1521.94 1685.48,1522.70 1685.93,1523.51 1685.57,1524.35 1684.37,1525.24"/>
    </edge>
    <edge id=":1683090876_0" function="internal">
        <lane id=":1683090876_0_0" index="0" disallow="tram rail_urban rail rail_electric ship" speed="13.89" length="4.82" shape="1564.66,1449.38 1565.29,1448.03 1566.04,1447.50 1566.92,1447.78 1567.92,1448.88"/>
    </edge>
    <edge id=":1683090878_0" function="internal">
        <lane id=":1683090878_0_0" index="0" disallow="tram rail_urban rail rail_electric ship" speed="13.89" length="5.24" shape="1641.35,1472.95 1641.02,1471.66 1640.31,1470.74 1639.20,1470.19 1637.71,1470.01"/>
    </edge>
    <edge id=":1683090878_1" function="internal">
        <lane id=":1683090878_1_0" index="0" disallow="tram rail_urban rail rail_electric ship" speed="13.89" length="9.44" shape="1641.35,1472.95 1640.72,1463.53"/>
    </edge>
    <edge id=":1683090878_2" function="internal">
        <lane id=":1683090878_2_0" index="0" disallow="tram rail_urban rail rail_electric ship" speed="13.89" length="2.41" shape="1641.35,1472.95 1642.06,1471.64 1642.85,1471.16"/>
    </edge>
    <edge id=":1683090878_9" function="internal">
        <lane id=":1683090878_9_0" index="0" speed="13.89" length="2.41" shape="1642.85,1471.16 1643.71,1471.49 1644.64,1472.65"/>
    </edge>
    <edge id=":1683090878_3" function="internal">
        <lane id=":1683090878_3_0" index="0" disallow="tram rail_urban rail rail_electric ship" speed="13.89" length="9.29" shape="1644.02,1463.38 1644.64,1472.65"/>
    </edge>
    <edge id=":1683090878_4" function="internal">
        <lane id=":1683090878_4_0" index="0" disallow="tram rail_urban rail rail_electric ship" speed="13.89" length="5.16" shape="1644.02,1463.38 1643.74,1466.27 1642.64,1468.25"/>
    </edge>
    <edge id=":1683090878_5" function="internal">
        <lane id=":1683090878_5_0" index="0" disallow="tram rail_urban rail rail_electric ship" speed="13.89" length="2.41" shape="1644.02,1463.38 1643.25,1464.66 1642.44,1465.11"/>
    </edge>
    <edge id=":1683090878_10" function="internal">
        <lane id=":1683090878_10_0" index="0" speed="13.89" length="5.38" shape="1642.64,1468.25 1642.59,1468.34 1640.58,1469.59 1637.71,1470.01"/>
    </edge>
    <edge id=":1683090878_11" function="internal">
        <lane id=":1683090878_11_0" index="0" speed="13.89" length="2.41" shape="1642.44,1465.11 1641.60,1464.73 1640.72,1463.53"/>
    </edge>
    <edge id=":1683090878_6" function="internal">
        <lane id=":1683090878_6_0" index="0" disallow="tram rail_urban rail rail_electric ship" speed="13.89" length="5.05" shape="1637.70,1466.71 1639.07,1466.51 1640.04,1465.91 1640.59,1464.92 1640.72,1463.53"/>
    </edge>
    <edge id=":1683090878_7" function="internal">
        <lane id=":1683090878_7_0" index="0" disallow="tram rail_urban rail rail_electric ship" speed="13.89" length="10.23" shape="1637.70,1466.71 1640.53,1467.07 1642.63,1468.18 1644.00,1470.04 1644.64,1472.65"/>
    </edge>
    <edge id=":1683090878_8" function="internal">
        <lane id=":1683090878_8_0" index="0" disallow="tram rail_urban rail rail_electric ship" speed="13.89" length="4.82" shape="1637.70,1466.71 1638.94,1467.53 1639.35,1468.35 1638.94,1469.18 1637.71,1470.01"/>
    </edge>
    <edge id=":266685697_0" function="internal">
        <lane id=":266685697_0_0" index="0" disallow="tram rail_urban rail rail_electric ship" speed="22.22" length="9.58" shape="1707.79,1525.81 1698.22,1525.32"/>
    </edge>
    <edge id=":266685697_1" function="internal">
        <lane id=":266685697_1_0" index="0" disallow="tram rail_urban rail rail_electric bicycle pedestrian ship" speed="25.00" length="7.99" shape="1707.79,1525.81 1706.37,1525.34 1705.44,1524.08 1705.00,1522.04 1705.06,1519.21"/>
    </edge>
    <edge id=":266685697_2" function="internal">
        <lane id=":266685697_2_0" index="0" disallow="tram rail_urban rail rail_electric ship" speed="22.22" length="4.82" shape="1707.79,1525.81 1706.59,1524.93 1706.22,1524.09 1706.66,1523.28 1707.94,1522.51"/>
    </edge>
    <edge id=":266685697_3" function="internal">
        <lane id=":266685697_3_0" index="0" disallow="tram rail_urban rail rail_electric bicycle pedestrian ship" speed="25.00" length="5.19" shape="1698.41,1522.02 1699.77,1521.89 1700.78,1521.33 1701.45,1520.33 1701.77,1518.90"/>
    </edge>
    <edge id=":266685697_4" function="internal">
        <lane id=":266685697_4_0" index="0" disallow="tram rail_urban rail rail_electric ship" speed="22.22" length="9.54" shape="1698.41,1522.02 1707.94,1522.51"/>
    </edge>
    <edge id=":266685697_5" function="internal">
        <lane id=":266685697_5_0" index="0" disallow="tram rail_urban rail rail_electric ship" speed="22.22" length="4.82" shape="1698.41,1522.02 1699.60,1522.92 1699.96,1523.77 1699.50,1524.57 1698.22,1525.32"/>
    </edge>
    <edge id=":266685697_6" function="internal">
        <lane id=":266685697_6_0" index="0" disallow="tram rail_urban rail rail_electric ship" speed="25.00" length="5.09" shape="1701.17,1528.70 1701.02,1527.29 1700.48,1526.25 1699.54,1525.60 1698.22,1525.32"/>
    </edge>
    <edge id=":266685697_7" function="internal">
        <lane id=":266685697_7_0" index="0" disallow="tram rail_urban rail rail_electric bicycle pedestrian ship" speed="27.78" length="9.71" shape="1701.17,1528.70 1701.77,1518.90"/>
        <lane id=":266685697_7_1" index="1" disallow="tram rail_urban rail rail_electric bicycle pedestrian ship" speed="27.78" length="9.71" shape="1704.47,1528.79 1705.06,1519.21"/>
    </edge>
    <edge id=":266685697_9" function="internal">
        <lane id=":266685697_9_0" index="0" disallow="tram rail_urban rail rail_electric ship" speed="25.00" length="7.97" shape="1704.47,1528.79 1704.76,1525.99 1705.43,1524.01 1706.49,1522.85 1707.94,1522.51"/>
    </edge>
    <edge id=":266870873_0" function="internal">
        <lane id=":266870873_0_0" index="0" disallow="tram rail_urban rail rail_electric ship" speed="22.22" length="4.82" shape="2219.80,1530.63 2221.02,1531.47 2221.43,1532.30 2221.00,1533.12 2219.75,1533.93"/>
    </edge>
    <edge id=":267192102_0" function="internal">
        <lane id=":267192102_0_0" index="0" disallow="tram rail_urban rail rail_electric ship" speed="18.05" length="5.82" shape="1646.90,1530.83 1646.46,1529.30 1645.66,1528.22 1644.49,1527.60 1642.94,1527.43"/>
    </edge>
    <edge id=":267192102_1" function="internal">
        <lane id=":267192102_1_0" index="0" disallow="tram rail_urban rail rail_electric ship" speed="13.89" length="10.06" shape="1646.90,1530.83 1645.73,1520.84"/>
    </edge>
    <edge id=":267192102_2" function="internal">
        <lane id=":267192102_2_0" index="0" disallow="tram rail_urban rail rail_electric ship" speed="18.05" length="10.76" shape="1646.90,1530.83 1646.90,1527.85 1647.88,1525.66 1649.83,1524.27 1652.76,1523.68"/>
    </edge>
    <edge id=":267192102_3" function="internal">
        <lane id=":267192102_3_0" index="0" disallow="tram rail_urban rail rail_electric ship" speed="13.89" length="4.82" shape="1646.90,1530.83 1647.54,1529.49 1648.30,1528.97 1649.17,1529.26 1650.17,1530.37"/>
    </edge>
    <edge id=":267192102_4" function="internal">
        <lane id=":267192102_4_0" index="0" disallow="tram rail_urban rail rail_electric ship" speed="18.05" length="5.10" shape="1652.95,1526.97 1651.56,1527.26 1650.63,1527.91 1650.17,1528.95 1650.17,1530.37"/>
    </edge>
    <edge id=":267192102_5" function="internal">
        <lane id=":267192102_5_0" index="0" disallow="tram rail_urban rail rail_electric ship" speed="22.22" length="10.01" shape="1652.95,1526.97 1642.94,1527.43"/>
    </edge>
    <edge id=":267192102_6" function="internal">
        <lane id=":267192102_6_0" index="0" disallow="tram rail_urban rail rail_electric ship" speed="18.05" length="5.53" shape="1652.95,1526.97 1650.01,1526.73 1647.83,1525.63 1647.75,1525.51"/>
    </edge>
    <edge id=":267192102_7" function="internal">
        <lane id=":267192102_7_0" index="0" disallow="tram rail_urban rail rail_electric ship" speed="22.22" length="2.41" shape="1652.95,1526.97 1651.66,1526.22 1651.21,1525.42"/>
    </edge>
    <edge id=":267192102_16" function="internal">
        <lane id=":267192102_16_0" index="0" speed="18.05" length="5.18" shape="1647.75,1525.51 1646.40,1523.67 1645.73,1520.84"/>
    </edge>
    <edge id=":267192102_17" function="internal">
        <lane id=":267192102_17_0" index="0" speed="22.22" length="2.41" shape="1651.21,1525.42 1651.57,1524.57 1652.76,1523.68"/>
    </edge>
    <edge id=":267192102_8" function="internal">
        <lane id=":267192102_8_0" index="0" disallow="tram rail_urban rail rail_electric ship" speed="18.05" length="5.53" shape="1649.01,1520.54 1649.36,1521.99 1650.10,1522.99 1651.24,1523.56 1652.76,1523.68"/>
    </edge>
    <edge id=":267192102_9" function="internal">
        <lane id=":267192102_9_0" index="0" disallow="tram rail_urban rail rail_electric ship" speed="13.89" length="9.89" shape="1649.01,1520.54 1650.17,1530.37"/>
    </edge>
    <edge id=":267192102_10" function="internal">
        <lane id=":267192102_10_0" index="0" disallow="tram rail_urban rail rail_electric ship" speed="18.05" length="10.61" shape="1649.01,1520.54 1648.86,1523.47 1647.80,1525.59 1645.83,1526.91 1642.94,1527.43"/>
    </edge>
    <edge id=":267192102_11" function="internal">
        <lane id=":267192102_11_0" index="0" disallow="tram rail_urban rail rail_electric ship" speed="13.89" length="4.82" shape="1649.01,1520.54 1648.31,1521.85 1647.52,1522.34 1646.66,1522.00 1645.73,1520.84"/>
    </edge>
    <edge id=":267192102_12" function="internal">
        <lane id=":267192102_12_0" index="0" disallow="tram rail_urban rail rail_electric ship" speed="18.05" length="5.07" shape="1642.83,1524.13 1644.21,1523.89 1645.15,1523.26 1645.66,1522.24 1645.73,1520.84"/>
    </edge>
    <edge id=":267192102_13" function="internal">
        <lane id=":267192102_13_0" index="0" disallow="tram rail_urban rail rail_electric ship" speed="22.22" length="9.94" shape="1642.83,1524.13 1652.76,1523.68"/>
    </edge>
    <edge id=":267192102_14" function="internal">
        <lane id=":267192102_14_0" index="0" disallow="tram rail_urban rail rail_electric ship" speed="18.05" length="5.34" shape="1642.83,1524.13 1645.69,1524.44 1647.87,1525.58"/>
    </edge>
    <edge id=":267192102_15" function="internal">
        <lane id=":267192102_15_0" index="0" disallow="tram rail_urban rail rail_electric ship" speed="22.22" length="2.41" shape="1642.83,1524.13 1644.09,1524.92 1644.54,1525.73"/>
    </edge>
    <edge id=":267192102_18" function="internal">
        <lane id=":267192102_18_0" index="0" speed="18.05" length="5.40" shape="1647.87,1525.58 1649.36,1527.56 1650.17,1530.37"/>
    </edge>
    <edge id=":267192102_19" function="internal">
        <lane id=":267192102_19_0" index="0" speed="22.22" length="2.41" shape="1644.54,1525.73 1644.15,1526.56 1642.94,1527.43"/>
    </edge>
    <edge id=":3485915215_0" function="internal">
        <lane id=":3485915215_0_0" index="0" disallow="tram rail_urban rail rail_electric ship" speed="22.22" length="9.48" shape="1683.26,1525.30 1673.79,1525.80"/>
    </edge>
    <edge id=":3485915215_1" function="internal">
        <lane id=":3485915215_1_0" index="0" disallow="tram rail_urban rail rail_electric ship" speed="18.05" length="5.22" shape="1683.26,1525.30 1680.40,1525.04 1678.33,1523.92"/>
    </edge>
    <edge id=":3485915215_2" function="internal">
        <lane id=":3485915215_2_0" index="0" disallow="tram rail_urban rail rail_electric ship" speed="22.22" length="2.41" shape="1683.26,1525.30 1681.98,1524.54 1681.53,1523.73"/>
    </edge>
    <edge id=":3485915215_9" function="internal">
        <lane id=":3485915215_9_0" index="0" speed="18.05" length="5.22" shape="1678.33,1523.92 1677.06,1521.95 1676.57,1519.12"/>
    </edge>
    <edge id=":3485915215_10" function="internal">
        <lane id=":3485915215_10_0" index="0" speed="22.22" length="2.41" shape="1681.53,1523.73 1681.90,1522.89 1683.09,1522.00"/>
    </edge>
    <edge id=":3485915215_3" function="internal">
        <lane id=":3485915215_3_0" index="0" disallow="tram rail_urban rail rail_electric ship" speed="18.05" length="5.03" shape="1679.87,1519.02 1680.10,1520.39 1680.72,1521.34 1681.71,1521.87 1683.09,1522.00"/>
    </edge>
    <edge id=":3485915215_4" function="internal">
        <lane id=":3485915215_4_0" index="0" disallow="tram rail_urban rail rail_electric ship" speed="18.05" length="10.32" shape="1679.87,1519.02 1679.56,1521.86 1678.44,1523.93 1676.52,1525.25 1673.79,1525.80"/>
    </edge>
    <edge id=":3485915215_5" function="internal">
        <lane id=":3485915215_5_0" index="0" disallow="tram rail_urban rail rail_electric ship" speed="13.89" length="4.82" shape="1679.87,1519.02 1679.08,1520.28 1678.27,1520.72 1677.43,1520.33 1676.57,1519.12"/>
    </edge>
    <edge id=":3485915215_6" function="internal">
        <lane id=":3485915215_6_0" index="0" disallow="tram rail_urban rail rail_electric ship" speed="18.05" length="5.10" shape="1673.61,1522.51 1674.94,1522.23 1675.87,1521.58 1676.42,1520.54 1676.57,1519.12"/>
    </edge>
    <edge id=":3485915215_7" function="internal">
        <lane id=":3485915215_7_0" index="0" disallow="tram rail_urban rail rail_electric ship" speed="22.22" length="9.49" shape="1673.61,1522.51 1683.09,1522.00"/>
    </edge>
    <edge id=":3485915215_8" function="internal">
        <lane id=":3485915215_8_0" index="0" disallow="tram rail_urban rail rail_electric ship" speed="22.22" length="2.41" shape="1673.61,1522.51 1674.89,1523.26 1675.35,1524.06"/>
    </edge>
    <edge id=":3485915215_11" function="internal">
        <lane id=":3485915215_11_0" index="0" speed="22.22" length="2.41" shape="1675.35,1524.06 1674.98,1524.91 1673.79,1525.80"/>
    </edge>
    <edge id=":3838682949_0" function="internal">
        <lane id=":3838682949_0_0" index="0" disallow="tram rail_urban rail rail_electric ship" speed="13.89" length="4.82" shape="1638.95,1239.90 1639.90,1238.76 1640.77,1238.44 1641.54,1238.94 1642.23,1240.26"/>
    </edge>
    <edge id=":3842880178_0" function="internal">
        <lane id=":3842880178_0_0" index="0" disallow="tram rail_urban rail rail_electric bicycle pedestrian ship" speed="20.84" length="8.31" shape="1714.18,1462.97 1712.52,1462.69 1711.41,1461.53 1710.83,1459.50 1710.81,1456.59"/>
    </edge>
    <edge id=":3842880178_1" function="internal">
        <lane id=":3842880178_1_0" index="0" disallow="tram rail_urban rail rail_electric ship" speed="13.89" length="4.82" shape="1714.18,1462.97 1712.88,1462.25 1712.40,1461.46 1712.75,1460.60 1713.92,1459.68"/>
    </edge>
    <edge id=":3842880178_2" function="internal">
        <lane id=":3842880178_2_0" index="0" disallow="tram rail_urban rail rail_electric bicycle pedestrian ship" speed="27.78" length="9.52" shape="1706.74,1465.81 1707.51,1456.35"/>
        <lane id=":3842880178_2_1" index="1" disallow="tram rail_urban rail rail_electric bicycle pedestrian ship" speed="27.78" length="9.52" shape="1710.02,1466.11 1710.81,1456.59"/>
    </edge>
    <edge id=":3842880178_4" function="internal">
        <lane id=":3842880178_4_0" index="0" disallow="tram rail_urban rail rail_electric ship" speed="20.84" length="8.14" shape="1710.02,1466.11 1710.48,1463.40 1711.29,1461.42 1712.43,1460.18 1713.92,1459.68"/>
    </edge>
    <edge id=":391697465_0" function="internal">
        <lane id=":391697465_0_0" index="0" disallow="tram rail_urban rail rail_electric ship" speed="13.89" length="4.82" shape="1672.52,1960.87 1671.72,1962.12 1670.90,1962.54 1670.07,1962.14 1669.22,1960.91"/>
    </edge>
    <edge id=":391698117_0" function="internal">
        <lane id=":391698117_0_0" index="0" allow="delivery bicycle pedestrian" speed="5.56" length="4.82" shape="1718.63,1299.26 1719.45,1298.02 1720.27,1297.61 1721.10,1298.01 1721.93,1299.25"/>
    </edge>
    <edge id=":391698118_0" function="internal">
        <lane id=":391698118_0_0" index="0" disallow="tram rail_urban rail rail_electric ship" speed="22.22" length="9.62" shape="1720.29,1526.27 1710.67,1525.94"/>
    </edge>
    <edge id=":391698118_1" function="internal">
        <lane id=":391698118_1_0" index="0" allow="delivery bicycle pedestrian" speed="13.89" length="5.41" shape="1720.29,1526.27 1717.32,1525.76 1715.32,1524.43"/>
    </edge>
    <edge id=":391698118_2" function="internal">
        <lane id=":391698118_2_0" index="0" disallow="tram rail_urban rail rail_electric ship" speed="22.22" length="2.41" shape="1720.29,1526.27 1719.07,1525.41 1718.68,1524.58"/>
    </edge>
    <edge id=":391698118_9" function="internal">
        <lane id=":391698118_9_0" index="0" speed="13.89" length="5.41" shape="1715.32,1524.43 1714.29,1522.25 1714.23,1519.24"/>
    </edge>
    <edge id=":391698118_10" function="internal">
        <lane id=":391698118_10_0" index="0" speed="22.22" length="2.41" shape="1718.68,1524.58 1719.11,1523.76 1720.37,1522.97"/>
    </edge>
    <edge id=":391698118_3" function="internal">
        <lane id=":391698118_3_0" index="0" disallow="tram rail_urban rail rail_electric ship" speed="13.89" length="5.12" shape="1717.51,1519.65 1717.54,1521.07 1718.02,1522.10 1718.97,1522.73 1720.37,1522.97"/>
    </edge>
    <edge id=":391698118_4" function="internal">
        <lane id=":391698118_4_0" index="0" disallow="tram rail_urban rail rail_electric ship" speed="13.89" length="10.42" shape="1717.51,1519.65 1716.78,1522.50 1715.39,1524.50 1713.36,1525.65 1710.67,1525.94"/>
    </edge>
    <edge id=":391698118_5" function="internal">
        <lane id=":391698118_5_0" index="0" allow="delivery bicycle pedestrian" speed="5.56" length="4.82" shape="1717.51,1519.65 1716.54,1520.78 1715.67,1521.08 1714.90,1520.57 1714.23,1519.24"/>
    </edge>
    <edge id=":391698118_6" function="internal">
        <lane id=":391698118_6_0" index="0" allow="delivery bicycle pedestrian" speed="13.89" length="5.39" shape="1710.82,1522.64 1712.15,1522.48 1713.16,1521.86 1713.85,1520.78 1714.23,1519.24"/>
    </edge>
    <edge id=":391698118_7" function="internal">
        <lane id=":391698118_7_0" index="0" disallow="tram rail_urban rail rail_electric ship" speed="22.22" length="9.56" shape="1710.82,1522.64 1720.37,1522.97"/>
    </edge>
    <edge id=":391698118_8" function="internal">
        <lane id=":391698118_8_0" index="0" disallow="tram rail_urban rail rail_electric ship" speed="22.22" length="2.41" shape="1710.82,1522.64 1712.02,1523.52 1712.39,1524.37"/>
    </edge>
    <edge id=":391698118_11" function="internal">
        <lane id=":391698118_11_0" index="0" speed="22.22" length="2.41" shape="1712.39,1524.37 1711.94,1525.17 1710.67,1525.94"/>
    </edge>
    <edge id=":391698129_0" function="internal">
        <lane id=":391698129_0_0" index="0" allow="delivery bicycle pedestrian" speed="9.73" length="5.97" shape="1727.72,1462.29 1726.31,1462.52 1725.24,1463.26 1724.49,1464.50 1724.08,1466.24"/>
    </edge>
    <edge id=":391698129_1" function="internal">
        <lane id=":391698129_1_0" index="0" disallow="tram rail_urban rail rail_electric ship" speed="13.89" length="9.96" shape="1727.72,1462.29 1724.77,1462.27 1722.74,1462.31 1720.72,1462.44 1717.78,1462.68"/>
    </edge>
    <edge id=":391698129_2" function="internal">
        <lane id=":391698129_2_0" index="0" allow="delivery bicycle pedestrian" speed="9.73" length="5.06" shape="1727.72,1462.29 1724.99,1461.87 1723.02,1460.69"/>
    </edge>
    <edge id=":391698129_3" function="internal">
        <lane id=":391698129_3_0" index="0" disallow="tram rail_urban rail rail_electric ship" speed="13.89" length="2.41" shape="1727.72,1462.29 1726.49,1461.45 1726.09,1460.62"/>
    </edge>
    <edge id=":391698129_16" function="internal">
        <lane id=":391698129_16_0" index="0" speed="9.73" length="5.06" shape="1723.02,1460.69 1721.80,1458.73 1721.33,1456.01"/>
    </edge>
    <edge id=":391698129_17" function="internal">
        <lane id=":391698129_17_0" index="0" speed="13.89" length="2.41" shape="1726.09,1460.62 1726.51,1459.80 1727.76,1458.99"/>
    </edge>
    <edge id=":391698129_4" function="internal">
        <lane id=":391698129_4_0" index="0" disallow="tram rail_urban rail rail_electric ship" speed="9.73" length="4.95" shape="1724.63,1455.92 1724.86,1457.25 1725.46,1458.21 1726.42,1458.79 1727.76,1458.99"/>
    </edge>
    <edge id=":391698129_5" function="internal">
        <lane id=":391698129_5_0" index="0" allow="delivery bicycle pedestrian" speed="5.56" length="10.35" shape="1724.63,1455.92 1724.69,1458.94 1724.64,1461.09 1724.44,1463.24 1724.08,1466.24"/>
    </edge>
    <edge id=":391698129_6" function="internal">
        <lane id=":391698129_6_0" index="0" disallow="tram rail_urban rail rail_electric ship" speed="9.73" length="10.84" shape="1724.63,1455.92 1724.27,1458.66 1723.01,1460.70 1720.84,1462.04 1717.78,1462.68"/>
    </edge>
    <edge id=":391698129_7" function="internal">
        <lane id=":391698129_7_0" index="0" allow="delivery bicycle pedestrian" speed="5.56" length="4.82" shape="1724.63,1455.92 1723.84,1457.18 1723.03,1457.61 1722.19,1457.22 1721.33,1456.01"/>
    </edge>
    <edge id=":391698129_8" function="internal">
        <lane id=":391698129_8_0" index="0" allow="delivery bicycle pedestrian" speed="9.73" length="5.73" shape="1717.51,1459.39 1719.22,1459.06 1720.42,1458.39 1721.13,1457.37 1721.33,1456.01"/>
    </edge>
    <edge id=":391698129_9" function="internal">
        <lane id=":391698129_9_0" index="0" disallow="tram rail_urban rail rail_electric ship" speed="13.89" length="10.26" shape="1717.51,1459.39 1720.51,1459.15 1722.63,1459.02 1724.75,1458.97 1727.76,1458.99"/>
    </edge>
    <edge id=":391698129_10" function="internal">