<?xml version="1.0" encoding="UTF-8"?>

<!-- generated on Wed Aug 29 17:26:47 2018 by SUMO polyconvert Version 0.32.0
<?xml version="1.0" encoding="UTF-8"?>

<configuration xmlns:xsi="http://www.w3.org/2001/XMLSchema-instance" xsi:noNamespaceSchemaLocation="http://sumo.dlr.de/xsd/polyconvertConfiguration.xsd">

    <input>
        <net-file value="uttara2.net.xml"/>
        <osm-files value="uttara.osm"/>
        <type-file value="osmPolyconvert.typ.xml"/>
    </input>

    <output>
        <output-file value="uttara2.poly.xml"/>
    </output>

    <processing>
        <poi-layer-offset value="5"/>
    </processing>

</configuration>
-->

<additional xmlns:xsi="http://www.w3.org/2001/XMLSchema-instance" xsi:noNamespaceSchemaLocation="http://sumo.dlr.de/xsd/additional_file.xsd">
    <location netOffset="-233594.63,-2641246.97" convBoundary="-0.00,-0.00,2221.35,2175.51" origBoundary="90.383916,23.860808,90.405780,23.880459" projParameter="+proj=utm +zone=46 +ellps=WGS84 +datum=WGS84 +units=m +no_defs"/>

    <poly id="369726698" type="building" color="255,230,230" fill="1" layer="-1.00" shape="1652.16,1472.32 1670.82,1471.30 1670.03,1440.21 1652.06,1442.54 1652.16,1472.32"/>
    <poly id="369726994" type="building" color="255,230,230" fill="1" layer="-1.00" shape="1616.36,1505.73 1637.07,1505.58 1636.67,1471.33 1616.63,1470.80 1616.36,1505.73"/>
    <poly id="369726994#1" type="shop" color="237,199,255" fill="1" layer="-1.00" shape="1616.36,1505.73 1637.07,1505.58 1636.67,1471.33 1616.63,1470.80 1616.36,1505.73"/>
    <poly id="444134149" type="building" color="255,230,230" fill="1" layer="-1.00" shape="1608.54,1462.21 1626.57,1461.74 1626.22,1448.54 1608.19,1449.01 1608.54,1462.21"/>
    <poly id="444154441" type="building" color="255,230,230" fill="1" layer="-1.00" shape="1793.47,1484.29 1793.06,1464.72 1781.50,1464.96 1781.90,1484.52 1793.47,1484.29"/>
    <poly id="444154444" type="building" color="255,230,230" fill="1" layer="-1.00" shape="1764.83,1453.12 1765.49,1434.76 1752.52,1434.30 1751.86,1452.66 1764.83,1453.12"/>
    <poly id="444154461" type="building" color="255,230,230" fill="1" layer="-1.00" shape="1746.06,1455.27 1744.96,1433.95 1733.98,1434.51 1735.07,1455.83 1746.06,1455.27"/>
    <poly id="444154473" type="building" color="255,230,230" fill="1" layer="-1.00" shape="1793.54,1450.67 1793.55,1435.83 1782.41,1435.82 1782.40,1450.66 1793.54,1450.67"/>
    <poly id="444154483" type="building" color="255,230,230" fill="1" layer="-1.00" shape="1743.62,1484.62 1743.61,1465.16 1733.44,1465.16 1733.45,1484.61 1743.62,1484.62"/>
    <poly id="444154485" type="building" color="255,230,230" fill="1" layer="-1.00" shape="1761.26,1505.42 1760.80,1487.76 1748.78,1488.07 1749.25,1505.72 1761.26,1505.42"/>
    <poly id="444154500" type="building" color="255,230,230" fill="1" layer="-1.00" shape="1763.80,1482.21 1763.22,1465.64 1750.89,1466.06 1751.47,1482.64 1763.80,1482.21"/>
    <poly id="444154505" type="building" color="255,230,230" fill="1" layer="-1.00" shape="1780.94,1449.55 1780.17,1433.94 1768.58,1434.51 1769.34,1450.12 1780.94,1449.55"/>
    <poly id="444154516" type="building" color="255,230,230" fill="1" layer="-1.00" shape="1774.48,1501.44 1774.22,1488.81 1762.64,1489.04 1762.90,1501.68 1774.48,1501.44"/>
    <poly id="444154518" type="building" color="255,230,230" fill="1" layer="-1.00" shape="1745.18,1507.87 1744.67,1487.90 1732.79,1488.21 1733.29,1508.17 1745.18,1507.87"/>
    <poly id="444154567" type="building" color="255,230,230" fill="1" layer="-1.00" shape="1777.00,1483.26 1776.61,1464.24 1764.90,1464.49 1765.30,1483.51 1777.00,1483.26"/>
    <poly id="444154569" type="building" color="255,230,230" fill="1" layer="-1.00" shape="1788.98,1501.81 1788.64,1490.53 1781.07,1490.74 1781.40,1502.03 1788.98,1501.81"/>
    <poly id="444155436" type="building" color="255,230,230" fill="1" layer="-1.00" shape="1635.59,1575.52 1650.87,1574.02 1650.02,1565.46 1634.74,1566.97 1635.59,1575.52"/>
    <poly id="444155499" type="building" color="255,230,230" fill="1" layer="-1.00" shape="1634.41,1562.76 1649.54,1561.12 1648.47,1551.26 1633.33,1552.91 1634.41,1562.76"/>
    <poly id="444155511" type="building" color="255,230,230" fill="1" layer="-1.00" shape="1611.72,1563.32 1625.52,1563.33 1625.54,1551.77 1611.73,1551.76 1611.72,1563.32"/>
    <poly id="444155536" type="building" color="255,230,230" fill="1" layer="-1.00" shape="1608.86,1548.82 1622.11,1548.58 1621.90,1537.30 1608.65,1537.54 1608.86,1548.82"/>
    <poly id="444155548" type="building" color="255,230,230" fill="1" layer="-1.00" shape="1669.06,1557.90 1667.98,1539.99 1654.56,1540.78 1655.65,1558.70 1669.06,1557.90"/>
    <poly id="444155556" type="building" color="255,230,230" fill="1" layer="-1.00" shape="1629.79,1549.93 1644.68,1549.25 1644.15,1537.70 1629.26,1538.38 1629.79,1549.93"/>
    <poly id="444155575" type="building" color="255,230,230" fill="1" layer="-1.00" shape="1669.76,1579.41 1675.59,1578.84 1675.11,1570.30 1668.91,1570.65 1668.96,1571.51 1668.33,1571.55 1667.18,1563.19 1660.21,1564.15 1662.42,1580.14 1669.76,1579.41"/>
    <poly id="472821529" type="residential" color="235,235,227" fill="1" layer="-3.00" shape="1711.08,1128.19 1712.84,1145.51 1724.43,1282.21 1729.00,1373.95 1729.52,1441.36 1723.25,1519.48 2209.03,1525.35 2221.35,1137.72 1711.08,1128.19"/>
    <poly id="490298597" type="building" color="255,230,230" fill="1" layer="-1.00" shape="1615.22,1577.72 1629.21,1576.77 1628.45,1565.85 1614.47,1566.81 1615.22,1577.72"/>
    <poly id="501344968" type="building" color="255,230,230" fill="1" layer="-1.00" shape="1741.93,1553.86 1778.67,1554.31 1778.78,1545.59 1742.04,1545.13 1741.93,1553.86"/>
    <poly id="501344969" type="building" color="255,230,230" fill="1" layer="-1.00" shape="1738.51,1580.59 1753.46,1580.31 1753.18,1565.12 1738.24,1565.40 1738.51,1580.59"/>
    <poly id="501999816" type="building" color="255,230,230" fill="1" layer="-1.00" shape="1683.41,1530.98 1668.44,1531.88 1668.97,1540.50 1683.93,1539.61 1683.41,1530.98"/>
    <poi id="1496115350" type="building" color="255,230,230" layer="4.00" x="1648.14" y="1506.65"/>
    <poi id="1496129927" type="shop" color="237,199,255" layer="4.00" x="1659.13" y="1548.63"/>
    <poi id="1713239652" type="building" color="255,230,230" layer="4.00" x="1619.00" y="1498.09"/>
    <poi id="5146833070" type="amenity" color="237,199,199" layer="4.00" x="1738.67" y="1466.63"/>
    <poi id="5146833071" type="amenity" color="237,199,199" layer="4.00" x="1737.61" y="1505.79"/>
    <poi id="5146833073" type="amenity" color="237,199,199" layer="4.00" x="1658.62" y="1543.26"/>
</additional>
